*SPEF "IEEE 1481-1998"
*DESIGN "VQS64_4"
*DATE "Fri Nov 17 21:38:23 2017"
*VENDOR "Cadence Design Systems, Inc."
*PROGRAM "Innovus"
*VERSION "17.11-s080_1"
*DESIGN_FLOW "COUPLING C" "PIN_CAP NONE" "NAME_SCOPE LOCAL"
*DIVIDER /
*DELIMITER :
*BUS_DELIMITER []
*T_UNIT 1 NS
*C_UNIT 1 PF
*R_UNIT 1 OHM
*L_UNIT 1 HENRY

// MMMC spef file for corner 'NG_rc_typ'

*NAME_MAP

*1 mX1[63]
*2 mX1[62]
*3 mX1[61]
*4 mX1[60]
*5 mX1[59]
*6 mX1[58]
*7 mX1[57]
*8 mX1[56]
*9 mX1[55]
*10 mX1[54]
*11 mX1[53]
*12 mX1[52]
*13 mX1[51]
*14 mX1[50]
*15 mX1[49]
*16 mX1[48]
*17 mX1[47]
*18 mX1[46]
*19 mX1[45]
*20 mX1[44]
*21 mX1[43]
*22 mX1[42]
*23 mX1[41]
*24 mX1[40]
*25 mX1[39]
*26 mX1[38]
*27 mX1[37]
*28 mX1[36]
*29 mX1[35]
*30 mX1[34]
*31 mX1[33]
*32 mX1[32]
*33 mX1[31]
*34 mX1[30]
*35 mX1[29]
*36 mX1[28]
*37 mX1[27]
*38 mX1[26]
*39 mX1[25]
*40 mX1[24]
*41 mX1[23]
*42 mX1[22]
*43 mX1[21]
*44 mX1[20]
*45 mX1[19]
*46 mX1[18]
*47 mX1[17]
*48 mX1[16]
*49 mX1[15]
*50 mX1[14]
*51 mX1[13]
*52 mX1[12]
*53 mX1[11]
*54 mX1[10]
*55 mX1[9]
*56 mX1[8]
*57 mX1[7]
*58 mX1[6]
*59 mX1[5]
*60 mX1[4]
*61 mX1[3]
*62 mX1[2]
*63 mX1[1]
*64 mX1[0]
*65 mX2[63]
*66 mX2[62]
*67 mX2[61]
*68 mX2[60]
*69 mX2[59]
*70 mX2[58]
*71 mX2[57]
*72 mX2[56]
*73 mX2[55]
*74 mX2[54]
*75 mX2[53]
*76 mX2[52]
*77 mX2[51]
*78 mX2[50]
*79 mX2[49]
*80 mX2[48]
*81 mX2[47]
*82 mX2[46]
*83 mX2[45]
*84 mX2[44]
*85 mX2[43]
*86 mX2[42]
*87 mX2[41]
*88 mX2[40]
*89 mX2[39]
*90 mX2[38]
*91 mX2[37]
*92 mX2[36]
*93 mX2[35]
*94 mX2[34]
*95 mX2[33]
*96 mX2[32]
*97 mX2[31]
*98 mX2[30]
*99 mX2[29]
*100 mX2[28]
*101 mX2[27]
*102 mX2[26]
*103 mX2[25]
*104 mX2[24]
*105 mX2[23]
*106 mX2[22]
*107 mX2[21]
*108 mX2[20]
*109 mX2[19]
*110 mX2[18]
*111 mX2[17]
*112 mX2[16]
*113 mX2[15]
*114 mX2[14]
*115 mX2[13]
*116 mX2[12]
*117 mX2[11]
*118 mX2[10]
*119 mX2[9]
*120 mX2[8]
*121 mX2[7]
*122 mX2[6]
*123 mX2[5]
*124 mX2[4]
*125 mX2[3]
*126 mX2[2]
*127 mX2[1]
*128 mX2[0]
*129 mX3[63]
*130 mX3[62]
*131 mX3[61]
*132 mX3[60]
*133 mX3[59]
*134 mX3[58]
*135 mX3[57]
*136 mX3[56]
*137 mX3[55]
*138 mX3[54]
*139 mX3[53]
*140 mX3[52]
*141 mX3[51]
*142 mX3[50]
*143 mX3[49]
*144 mX3[48]
*145 mX3[47]
*146 mX3[46]
*147 mX3[45]
*148 mX3[44]
*149 mX3[43]
*150 mX3[42]
*151 mX3[41]
*152 mX3[40]
*153 mX3[39]
*154 mX3[38]
*155 mX3[37]
*156 mX3[36]
*157 mX3[35]
*158 mX3[34]
*159 mX3[33]
*160 mX3[32]
*161 mX3[31]
*162 mX3[30]
*163 mX3[29]
*164 mX3[28]
*165 mX3[27]
*166 mX3[26]
*167 mX3[25]
*168 mX3[24]
*169 mX3[23]
*170 mX3[22]
*171 mX3[21]
*172 mX3[20]
*173 mX3[19]
*174 mX3[18]
*175 mX3[17]
*176 mX3[16]
*177 mX3[15]
*178 mX3[14]
*179 mX3[13]
*180 mX3[12]
*181 mX3[11]
*182 mX3[10]
*183 mX3[9]
*184 mX3[8]
*185 mX3[7]
*186 mX3[6]
*187 mX3[5]
*188 mX3[4]
*189 mX3[3]
*190 mX3[2]
*191 mX3[1]
*192 mX3[0]
*193 mX4[63]
*194 mX4[62]
*195 mX4[61]
*196 mX4[60]
*197 mX4[59]
*198 mX4[58]
*199 mX4[57]
*200 mX4[56]
*201 mX4[55]
*202 mX4[54]
*203 mX4[53]
*204 mX4[52]
*205 mX4[51]
*206 mX4[50]
*207 mX4[49]
*208 mX4[48]
*209 mX4[47]
*210 mX4[46]
*211 mX4[45]
*212 mX4[44]
*213 mX4[43]
*214 mX4[42]
*215 mX4[41]
*216 mX4[40]
*217 mX4[39]
*218 mX4[38]
*219 mX4[37]
*220 mX4[36]
*221 mX4[35]
*222 mX4[34]
*223 mX4[33]
*224 mX4[32]
*225 mX4[31]
*226 mX4[30]
*227 mX4[29]
*228 mX4[28]
*229 mX4[27]
*230 mX4[26]
*231 mX4[25]
*232 mX4[24]
*233 mX4[23]
*234 mX4[22]
*235 mX4[21]
*236 mX4[20]
*237 mX4[19]
*238 mX4[18]
*239 mX4[17]
*240 mX4[16]
*241 mX4[15]
*242 mX4[14]
*243 mX4[13]
*244 mX4[12]
*245 mX4[11]
*246 mX4[10]
*247 mX4[9]
*248 mX4[8]
*249 mX4[7]
*250 mX4[6]
*251 mX4[5]
*252 mX4[4]
*253 mX4[3]
*254 mX4[2]
*255 mX4[1]
*256 mX4[0]
*257 mY1[63]
*258 mY1[62]
*259 mY1[61]
*260 mY1[60]
*261 mY1[59]
*262 mY1[58]
*263 mY1[57]
*264 mY1[56]
*265 mY1[55]
*266 mY1[54]
*267 mY1[53]
*268 mY1[52]
*269 mY1[51]
*270 mY1[50]
*271 mY1[49]
*272 mY1[48]
*273 mY1[47]
*274 mY1[46]
*275 mY1[45]
*276 mY1[44]
*277 mY1[43]
*278 mY1[42]
*279 mY1[41]
*280 mY1[40]
*281 mY1[39]
*282 mY1[38]
*283 mY1[37]
*284 mY1[36]
*285 mY1[35]
*286 mY1[34]
*287 mY1[33]
*288 mY1[32]
*289 mY1[31]
*290 mY1[30]
*291 mY1[29]
*292 mY1[28]
*293 mY1[27]
*294 mY1[26]
*295 mY1[25]
*296 mY1[24]
*297 mY1[23]
*298 mY1[22]
*299 mY1[21]
*300 mY1[20]
*301 mY1[19]
*302 mY1[18]
*303 mY1[17]
*304 mY1[16]
*305 mY1[15]
*306 mY1[14]
*307 mY1[13]
*308 mY1[12]
*309 mY1[11]
*310 mY1[10]
*311 mY1[9]
*312 mY1[8]
*313 mY1[7]
*314 mY1[6]
*315 mY1[5]
*316 mY1[4]
*317 mY1[3]
*318 mY1[2]
*319 mY1[1]
*320 mY1[0]
*321 mY2[63]
*322 mY2[62]
*323 mY2[61]
*324 mY2[60]
*325 mY2[59]
*326 mY2[58]
*327 mY2[57]
*328 mY2[56]
*329 mY2[55]
*330 mY2[54]
*331 mY2[53]
*332 mY2[52]
*333 mY2[51]
*334 mY2[50]
*335 mY2[49]
*336 mY2[48]
*337 mY2[47]
*338 mY2[46]
*339 mY2[45]
*340 mY2[44]
*341 mY2[43]
*342 mY2[42]
*343 mY2[41]
*344 mY2[40]
*345 mY2[39]
*346 mY2[38]
*347 mY2[37]
*348 mY2[36]
*349 mY2[35]
*350 mY2[34]
*351 mY2[33]
*352 mY2[32]
*353 mY2[31]
*354 mY2[30]
*355 mY2[29]
*356 mY2[28]
*357 mY2[27]
*358 mY2[26]
*359 mY2[25]
*360 mY2[24]
*361 mY2[23]
*362 mY2[22]
*363 mY2[21]
*364 mY2[20]
*365 mY2[19]
*366 mY2[18]
*367 mY2[17]
*368 mY2[16]
*369 mY2[15]
*370 mY2[14]
*371 mY2[13]
*372 mY2[12]
*373 mY2[11]
*374 mY2[10]
*375 mY2[9]
*376 mY2[8]
*377 mY2[7]
*378 mY2[6]
*379 mY2[5]
*380 mY2[4]
*381 mY2[3]
*382 mY2[2]
*383 mY2[1]
*384 mY2[0]
*385 mY3[63]
*386 mY3[62]
*387 mY3[61]
*388 mY3[60]
*389 mY3[59]
*390 mY3[58]
*391 mY3[57]
*392 mY3[56]
*393 mY3[55]
*394 mY3[54]
*395 mY3[53]
*396 mY3[52]
*397 mY3[51]
*398 mY3[50]
*399 mY3[49]
*400 mY3[48]
*401 mY3[47]
*402 mY3[46]
*403 mY3[45]
*404 mY3[44]
*405 mY3[43]
*406 mY3[42]
*407 mY3[41]
*408 mY3[40]
*409 mY3[39]
*410 mY3[38]
*411 mY3[37]
*412 mY3[36]
*413 mY3[35]
*414 mY3[34]
*415 mY3[33]
*416 mY3[32]
*417 mY3[31]
*418 mY3[30]
*419 mY3[29]
*420 mY3[28]
*421 mY3[27]
*422 mY3[26]
*423 mY3[25]
*424 mY3[24]
*425 mY3[23]
*426 mY3[22]
*427 mY3[21]
*428 mY3[20]
*429 mY3[19]
*430 mY3[18]
*431 mY3[17]
*432 mY3[16]
*433 mY3[15]
*434 mY3[14]
*435 mY3[13]
*436 mY3[12]
*437 mY3[11]
*438 mY3[10]
*439 mY3[9]
*440 mY3[8]
*441 mY3[7]
*442 mY3[6]
*443 mY3[5]
*444 mY3[4]
*445 mY3[3]
*446 mY3[2]
*447 mY3[1]
*448 mY3[0]
*449 mY4[63]
*450 mY4[62]
*451 mY4[61]
*452 mY4[60]
*453 mY4[59]
*454 mY4[58]
*455 mY4[57]
*456 mY4[56]
*457 mY4[55]
*458 mY4[54]
*459 mY4[53]
*460 mY4[52]
*461 mY4[51]
*462 mY4[50]
*463 mY4[49]
*464 mY4[48]
*465 mY4[47]
*466 mY4[46]
*467 mY4[45]
*468 mY4[44]
*469 mY4[43]
*470 mY4[42]
*471 mY4[41]
*472 mY4[40]
*473 mY4[39]
*474 mY4[38]
*475 mY4[37]
*476 mY4[36]
*477 mY4[35]
*478 mY4[34]
*479 mY4[33]
*480 mY4[32]
*481 mY4[31]
*482 mY4[30]
*483 mY4[29]
*484 mY4[28]
*485 mY4[27]
*486 mY4[26]
*487 mY4[25]
*488 mY4[24]
*489 mY4[23]
*490 mY4[22]
*491 mY4[21]
*492 mY4[20]
*493 mY4[19]
*494 mY4[18]
*495 mY4[17]
*496 mY4[16]
*497 mY4[15]
*498 mY4[14]
*499 mY4[13]
*500 mY4[12]
*501 mY4[11]
*502 mY4[10]
*503 mY4[9]
*504 mY4[8]
*505 mY4[7]
*506 mY4[6]
*507 mY4[5]
*508 mY4[4]
*509 mY4[3]
*510 mY4[2]
*511 mY4[1]
*512 mY4[0]
*513 mCLK
*514 FE_OCPN74_n3873
*515 FE_OCPN73_FE_RN_1
*516 FE_RN_450_0
*517 FE_RN_449_0
*518 FE_RN_448_0
*519 FE_RN_447_0
*520 FE_RN_446_0
*521 FE_RN_445_0
*522 FE_RN_444_0
*523 FE_RN_443_0
*524 FE_RN_442_0
*525 FE_RN_441_0
*526 FE_RN_440_0
*527 FE_RN_439_0
*528 FE_RN_438_0
*529 FE_RN_437_0
*530 FE_RN_436_0
*531 FE_RN_435_0
*532 FE_RN_434_0
*533 FE_RN_433_0
*534 FE_RN_432_0
*535 FE_RN_431_0
*536 FE_RN_430_0
*537 FE_RN_429_0
*538 FE_RN_428_0
*539 FE_RN_427_0
*540 FE_RN_425_0
*541 FE_RN_424_0
*542 FE_RN_423_0
*543 FE_RN_422_0
*544 FE_RN_421_0
*545 FE_RN_420_0
*546 FE_RN_419_0
*547 FE_RN_418_0
*548 FE_RN_417_0
*549 FE_RN_416_0
*550 FE_RN_415_0
*551 FE_RN_414_0
*552 FE_RN_413_0
*553 FE_RN_412_0
*554 FE_RN_411_0
*555 FE_RN_410_0
*556 FE_RN_409_0
*557 FE_RN_408_0
*558 FE_RN_407_0
*559 FE_RN_405_0
*560 FE_RN_404_0
*561 FE_RN_403_0
*562 FE_RN_401_0
*563 FE_RN_400_0
*564 FE_RN_398_0
*565 FE_RN_397_0
*566 FE_RN_396_0
*567 FE_RN_395_0
*568 FE_RN_393_0
*569 FE_RN_392_0
*570 FE_RN_390_0
*571 FE_RN_389_0
*572 FE_RN_388_0
*573 FE_RN_387_0
*574 FE_RN_386_0
*575 FE_RN_385_0
*576 FE_RN_384_0
*577 FE_RN_383_0
*578 FE_RN_382_0
*579 FE_RN_381_0
*580 FE_RN_380_0
*581 FE_RN_379_0
*582 FE_RN_378_0
*583 FE_RN_377_0
*584 FE_RN_6
*585 FE_RN_5
*586 FE_RN_4
*587 FE_RN_3
*588 FE_RN_2
*589 FE_RN_1
*590 FE_RN_376_0
*591 FE_RN_375_0
*592 FE_RN_374_0
*593 FE_RN_373_0
*594 FE_RN_372_0
*595 FE_RN_371_0
*596 FE_RN_370_0
*597 FE_RN_369_0
*598 FE_RN_368_0
*599 FE_RN_367_0
*600 FE_RN_366_0
*601 FE_RN_365_0
*602 FE_RN_364_0
*603 FE_RN_363_0
*604 FE_RN_362_0
*605 FE_RN_361_0
*606 FE_RN_360_0
*607 FE_RN_359_0
*608 FE_RN_357_0
*609 FE_RN_355_0
*610 FE_RN_354_0
*611 FE_RN_353_0
*612 FE_RN_352_0
*613 FE_RN_351_0
*614 FE_RN_350_0
*615 FE_RN_349_0
*616 FE_RN_348_0
*617 FE_RN_347_0
*618 FE_RN_346_0
*619 FE_RN_345_0
*620 FE_RN_344_0
*621 FE_RN_343_0
*622 FE_RN_342_0
*623 FE_RN_341_0
*624 FE_RN_340_0
*625 FE_RN_339_0
*626 FE_RN_338_0
*627 FE_RN_337_0
*628 FE_RN_336_0
*629 FE_RN_335_0
*630 FE_RN_334_0
*631 FE_RN_333_0
*632 FE_RN_332_0
*633 FE_RN_330_0
*634 FE_RN_328_0
*635 FE_RN_327_0
*636 FE_RN_326_0
*637 FE_RN_325_0
*638 FE_RN_324_0
*639 FE_RN_323_0
*640 FE_RN_322_0
*641 FE_RN_321_0
*642 FE_RN_320_0
*643 FE_RN_319_0
*644 FE_RN_318_0
*645 FE_RN_317_0
*646 FE_RN_316_0
*647 FE_RN_315_0
*648 FE_RN_314_0
*649 FE_RN_313_0
*650 FE_RN_312_0
*651 FE_RN_311_0
*652 FE_RN_310_0
*653 FE_RN_309_0
*654 FE_RN_308_0
*655 FE_RN_307_0
*656 FE_RN_306_0
*657 FE_RN_305_0
*658 FE_RN_304_0
*659 FE_RN_303_0
*660 FE_RN_302_0
*661 FE_RN_300_0
*662 FE_RN_298_0
*663 FE_RN_297_0
*664 FE_RN_296_0
*665 FE_RN_295_0
*666 FE_RN_294_0
*667 FE_RN_293_0
*668 FE_RN_292_0
*669 FE_RN_291_0
*670 FE_RN_290_0
*671 FE_RN_289_0
*672 FE_RN_288_0
*673 FE_RN_287_0
*674 FE_RN_286_0
*675 FE_RN_285_0
*676 FE_RN_284_0
*677 FE_RN_283_0
*678 FE_RN_282_0
*679 FE_RN_281_0
*680 FE_RN_280_0
*681 FE_RN_279_0
*682 FE_RN_278_0
*683 FE_RN_277_0
*684 FE_RN_276_0
*685 FE_RN_275_0
*686 FE_RN_274_0
*687 FE_RN_273_0
*688 FE_RN_272_0
*689 FE_RN_271_0
*690 FE_RN_270_0
*691 FE_RN_269_0
*692 FE_RN_268_0
*693 FE_RN_267_0
*694 FE_RN_266_0
*695 FE_RN_265_0
*696 FE_RN_264_0
*697 FE_RN_263_0
*698 FE_RN_262_0
*699 FE_RN_261_0
*700 FE_RN_260_0
*701 FE_RN_259_0
*702 FE_RN_258_0
*703 FE_RN_257_0
*704 FE_RN_256_0
*705 FE_RN_255_0
*706 FE_RN_254_0
*707 FE_RN_253_0
*708 FE_RN_252_0
*709 FE_RN_251_0
*710 FE_RN_250_0
*711 FE_RN_249_0
*712 FE_RN_248_0
*713 FE_RN_247_0
*714 FE_RN_246_0
*715 FE_RN_245_0
*716 FE_RN_244_0
*717 FE_RN_243_0
*718 FE_RN_242_0
*719 FE_RN_241_0
*720 FE_RN_240_0
*721 FE_RN_239_0
*722 FE_RN_238_0
*723 FE_RN_237_0
*724 FE_RN_236_0
*725 FE_RN_235_0
*726 FE_RN_234_0
*727 FE_RN_233_0
*728 FE_RN_232_0
*729 FE_RN_231_0
*730 FE_RN_230_0
*731 FE_RN_229_0
*732 FE_RN_228_0
*733 FE_RN_227_0
*734 FE_RN_226_0
*735 FE_RN_225_0
*736 FE_RN_224_0
*737 FE_RN_223_0
*738 FE_RN_222_0
*739 FE_RN_221_0
*740 FE_RN_220_0
*741 FE_RN_219_0
*742 FE_RN_218_0
*743 FE_RN_217_0
*744 FE_RN_216_0
*745 FE_RN_215_0
*746 FE_RN_214_0
*747 FE_RN_213_0
*748 FE_RN_212_0
*749 FE_RN_211_0
*750 FE_RN_210_0
*751 FE_RN_209_0
*752 FE_RN_208_0
*753 FE_RN_207_0
*754 FE_RN_206_0
*755 FE_RN_205_0
*756 FE_RN_204_0
*757 FE_RN_203_0
*758 FE_RN_202_0
*759 FE_RN_201_0
*760 FE_RN_200_0
*761 FE_RN_199_0
*762 FE_RN_198_0
*763 FE_RN_197_0
*764 FE_RN_196_0
*765 FE_RN_195_0
*766 FE_RN_194_0
*767 FE_RN_193_0
*768 FE_RN_192_0
*769 FE_RN_191_0
*770 FE_RN_190_0
*771 FE_RN_189_0
*772 FE_RN_188_0
*773 FE_RN_187_0
*774 FE_RN_186_0
*775 FE_RN_185_0
*776 FE_RN_184_0
*777 FE_RN_183_0
*778 FE_RN_182_0
*779 FE_RN_181_0
*780 FE_RN_180_0
*781 FE_RN_179_0
*782 FE_RN_178_0
*783 FE_RN_177_0
*784 FE_RN_176_0
*785 FE_RN_175_0
*786 FE_RN_174_0
*787 FE_RN_173_0
*788 FE_RN_172_0
*789 FE_RN_171_0
*790 FE_RN_170_0
*791 FE_RN_169_0
*792 FE_RN_168_0
*793 FE_RN_167_0
*794 FE_RN_166_0
*795 FE_RN_165_0
*796 FE_RN_164_0
*797 FE_RN_163_0
*798 FE_RN_162_0
*799 FE_RN_161_0
*800 FE_RN_160_0
*801 FE_RN_159_0
*802 FE_RN_158_0
*803 FE_RN_157_0
*804 FE_RN_156_0
*805 FE_RN_155_0
*806 FE_RN_154_0
*807 FE_RN_153_0
*808 FE_RN_152_0
*809 FE_RN_151_0
*810 FE_RN_150_0
*811 FE_RN_149_0
*812 FE_RN_148_0
*813 FE_RN_147_0
*814 FE_RN_146_0
*815 FE_RN_145_0
*816 FE_RN_144_0
*817 FE_RN_143_0
*818 FE_RN_142_0
*819 FE_RN_141_0
*820 FE_RN_140_0
*821 FE_RN_139_0
*822 FE_RN_138_0
*823 FE_RN_137_0
*824 FE_RN_136_0
*825 FE_RN_135_0
*826 FE_RN_134_0
*827 FE_RN_133_0
*828 FE_RN_132_0
*829 FE_RN_131_0
*830 FE_RN_130_0
*831 FE_RN_129_0
*832 FE_RN_128_0
*833 FE_RN_127_0
*834 FE_RN_126_0
*835 FE_RN_125_0
*836 FE_RN_124_0
*837 FE_RN_123_0
*838 FE_RN_122_0
*839 FE_RN_121_0
*840 FE_RN_120_0
*841 FE_RN_119_0
*842 FE_RN_118_0
*843 FE_RN_117_0
*844 FE_RN_116_0
*845 FE_RN_115_0
*846 FE_RN_114_0
*847 FE_RN_113_0
*848 FE_RN_112_0
*849 FE_RN_111_0
*850 FE_RN_110_0
*851 FE_RN_109_0
*852 FE_RN_108_0
*853 FE_RN_107_0
*854 FE_RN_106_0
*855 FE_RN_105_0
*856 FE_RN_104_0
*857 FE_RN_103_0
*858 FE_RN_102_0
*859 FE_RN_101_0
*860 FE_RN_100_0
*861 FE_RN_99_0
*862 FE_RN_98_0
*863 FE_RN_97_0
*864 FE_RN_96_0
*865 FE_RN_95_0
*866 FE_RN_94_0
*867 FE_RN_93_0
*868 FE_RN_92_0
*869 FE_RN_91_0
*870 FE_RN_90_0
*871 FE_RN_89_0
*872 FE_RN_88_0
*873 FE_RN_87_0
*874 FE_RN_86_0
*875 FE_RN_85_0
*876 FE_RN_84_0
*877 FE_RN_83_0
*878 FE_RN_82_0
*879 FE_RN_81_0
*880 FE_RN_80_0
*881 FE_RN_79_0
*882 FE_RN_78_0
*883 FE_RN_77_0
*884 FE_RN_76_0
*885 FE_RN_75_0
*886 FE_RN_74_0
*887 FE_RN_73_0
*888 FE_RN_72_0
*889 FE_RN_71_0
*890 FE_RN_70_0
*891 FE_RN_69_0
*892 FE_RN_68_0
*893 FE_RN_67_0
*894 FE_RN_66_0
*895 FE_RN_65_0
*896 FE_RN_64_0
*897 FE_RN_63_0
*898 FE_RN_62_0
*899 FE_RN_61_0
*900 FE_RN_60_0
*901 FE_RN_59_0
*902 FE_RN_58_0
*903 FE_RN_57_0
*904 FE_RN_56_0
*905 FE_RN_55_0
*906 FE_RN_54_0
*907 FE_RN_53_0
*908 FE_RN_52_0
*909 FE_RN_51_0
*910 FE_RN_50_0
*911 FE_RN_49_0
*912 FE_RN_48_0
*913 FE_RN_47_0
*914 FE_RN_46_0
*915 FE_RN_45_0
*916 FE_RN_44_0
*917 FE_RN_43_0
*918 FE_RN_42_0
*919 FE_RN_41_0
*920 FE_RN_40_0
*921 FE_RN_39_0
*922 FE_RN_38_0
*923 FE_RN_37_0
*924 FE_RN_36_0
*925 FE_RN_35_0
*926 FE_RN_34_0
*927 FE_RN_33_0
*928 FE_RN_32_0
*929 FE_RN_31_0
*930 FE_RN_30_0
*931 FE_RN_29_0
*932 FE_RN_28_0
*933 FE_RN_27_0
*934 FE_RN_26_0
*935 FE_RN_25_0
*936 FE_RN_24_0
*937 FE_RN_23_0
*938 FE_RN_22_0
*939 FE_RN_21_0
*940 FE_RN_20_0
*941 FE_RN_19_0
*942 FE_RN_18_0
*943 FE_RN_17_0
*944 FE_RN_16_0
*945 FE_RN_15_0
*946 FE_RN_14_0
*947 FE_RN_13_0
*948 FE_RN_12_0
*949 FE_RN_11_0
*950 FE_RN_10_0
*951 FE_RN_9_0
*952 FE_RN_8_0
*953 FE_RN_7_0
*954 FE_RN_6_0
*955 FE_RN_5_0
*956 FE_RN_4_0
*957 FE_RN_3_0
*958 FE_RN_2_0
*959 FE_RN_1_0
*960 FE_RN_0_0
*961 FE_OFN3729_n2832
*962 FE_OFN3728_n2832
*963 FE_OFN2859_n3734
*964 FE_OFN2858_n3734
*965 FE_OFN2857_n3726
*966 FE_OFN2855_n3873
*967 FE_OFN2853_n3721
*968 FE_OFN2852_n3879
*969 FE_OFN2850_n3879
*970 FE_OFN2848_n3879
*971 FE_OFN2847_n3723
*972 FE_OFN2845_n3868
*973 FE_OFN2842_n3850
*974 FE_OFN2840_n3871
*975 FE_OFN2839_n3869
*976 FE_OFN2837_n
*977 FE_OFN2836_n3727
*978 FE_OFN2835_n3727
*979 FE_OFN2834_n
*980 FE_OFN1_n2832
*981 N9
*982 N10
*983 N11
*984 N12
*985 N13
*986 N14
*987 N15
*988 N16
*989 N17
*990 N18
*991 N19
*992 N20
*993 N21
*994 N22
*995 N23
*996 N24
*997 N25
*998 N26
*999 N27
*1000 N28
*1001 N29
*1002 N30
*1003 N31
*1004 N32
*1005 N33
*1006 N34
*1007 N35
*1008 N36
*1009 N37
*1010 N38
*1011 N39
*1012 N40
*1013 N41
*1014 N42
*1015 N43
*1016 N44
*1017 N45
*1018 N46
*1019 N47
*1020 N48
*1021 N49
*1022 N50
*1023 N51
*1024 N52
*1025 N53
*1026 N54
*1027 N55
*1028 N56
*1029 N57
*1030 N58
*1031 N59
*1032 N60
*1033 N61
*1034 N62
*1035 N63
*1036 N64
*1037 N65
*1038 N66
*1039 N67
*1040 N68
*1041 N69
*1042 N70
*1043 N71
*1044 N72
*1045 N73
*1046 N74
*1047 N75
*1048 N76
*1049 N77
*1050 N78
*1051 N79
*1052 N80
*1053 N81
*1054 N82
*1055 N83
*1056 N84
*1057 N85
*1058 N86
*1059 N87
*1060 N88
*1061 N89
*1062 N90
*1063 N91
*1064 N92
*1065 N93
*1066 N94
*1067 N95
*1068 N96
*1069 N97
*1070 N98
*1071 N99
*1072 N100
*1073 N101
*1074 N102
*1075 N103
*1076 N104
*1077 N105
*1078 N106
*1079 N107
*1080 N108
*1081 N109
*1082 N110
*1083 N111
*1084 N112
*1085 N113
*1086 N114
*1087 N115
*1088 N116
*1089 N117
*1090 N118
*1091 N119
*1092 N120
*1093 N121
*1094 N122
*1095 N123
*1096 N124
*1097 N125
*1098 N126
*1099 N127
*1100 N128
*1101 N129
*1102 N130
*1103 N131
*1104 N132
*1105 N133
*1106 N134
*1107 N135
*1108 N136
*1109 N139
*1110 N140
*1111 N141
*1112 N142
*1113 N143
*1114 N144
*1115 N145
*1116 N146
*1117 N147
*1118 N148
*1119 N149
*1120 N150
*1121 N151
*1122 N152
*1123 N153
*1124 N154
*1125 N155
*1126 N156
*1127 N157
*1128 N158
*1129 N159
*1130 N160
*1131 N161
*1132 N162
*1133 N163
*1134 N164
*1135 N165
*1136 N166
*1137 N167
*1138 N168
*1139 N169
*1140 N170
*1141 N171
*1142 N172
*1143 N173
*1144 N174
*1145 N175
*1146 N176
*1147 N177
*1148 N178
*1149 N179
*1150 N180
*1151 N181
*1152 N182
*1153 N183
*1154 N184
*1155 N185
*1156 N186
*1157 N187
*1158 N188
*1159 N189
*1160 N190
*1161 N191
*1162 N192
*1163 N193
*1164 N194
*1165 N195
*1166 N196
*1167 N197
*1168 N198
*1169 N199
*1170 N200
*1171 N201
*1172 N202
*1173 N203
*1174 N204
*1175 N205
*1176 N206
*1177 N207
*1178 N208
*1179 N209
*1180 N210
*1181 N211
*1182 N212
*1183 N213
*1184 N214
*1185 N215
*1186 N216
*1187 N217
*1188 N218
*1189 N219
*1190 N220
*1191 N221
*1192 N222
*1193 N223
*1194 N224
*1195 N225
*1196 N226
*1197 N227
*1198 N228
*1199 N229
*1200 N230
*1201 N231
*1202 N232
*1203 N233
*1204 N234
*1205 N235
*1206 N236
*1207 N237
*1208 N238
*1209 N239
*1210 N240
*1211 N241
*1212 N242
*1213 N243
*1214 N244
*1215 N245
*1216 N246
*1217 N247
*1218 N248
*1219 N249
*1220 N250
*1221 N251
*1222 N252
*1223 N253
*1224 N254
*1225 N255
*1226 N256
*1227 N257
*1228 N258
*1229 N259
*1230 N260
*1231 N261
*1232 N262
*1233 N263
*1234 N264
*1235 N265
*1236 N266
*1237 N279
*1238 N280
*1239 N281
*1240 N282
*1241 N283
*1242 N284
*1243 N285
*1244 N286
*1245 N287
*1246 N288
*1247 N289
*1248 N290
*1249 N291
*1250 N292
*1251 N293
*1252 N294
*1253 N295
*1254 N296
*1255 N297
*1256 N298
*1257 N299
*1258 N300
*1259 N301
*1260 N302
*1261 N303
*1262 N304
*1263 N305
*1264 N306
*1265 N307
*1266 N308
*1267 N309
*1268 N310
*1269 N311
*1270 N312
*1271 N313
*1272 N314
*1273 N315
*1274 N316
*1275 N317
*1276 N318
*1277 N319
*1278 N320
*1279 N321
*1280 N322
*1281 N323
*1282 N324
*1283 N325
*1284 N326
*1285 N327
*1286 N328
*1287 N329
*1288 N330
*1289 N331
*1290 N332
*1291 N333
*1292 N334
*1293 N335
*1294 N336
*1295 N337
*1296 N338
*1297 N339
*1298 N340
*1299 N341
*1300 N342
*1301 N343
*1302 N344
*1303 N345
*1304 N346
*1305 N347
*1306 N348
*1307 N349
*1308 N350
*1309 N351
*1310 N352
*1311 N353
*1312 N354
*1313 N355
*1314 N356
*1315 N357
*1316 N358
*1317 N359
*1318 N360
*1319 N361
*1320 N362
*1321 N363
*1322 N364
*1323 N365
*1324 N366
*1325 N367
*1326 N368
*1327 N369
*1328 N370
*1329 N371
*1330 N372
*1331 N373
*1332 N374
*1333 N375
*1334 N376
*1335 N377
*1336 N378
*1337 N379
*1338 N380
*1339 N381
*1340 N382
*1341 N383
*1342 N384
*1343 N385
*1344 N386
*1345 N387
*1346 N388
*1347 N389
*1348 N390
*1349 N391
*1350 N392
*1351 N393
*1352 N394
*1353 N395
*1354 N396
*1355 N397
*1356 N398
*1357 N399
*1358 N400
*1359 N401
*1360 N402
*1361 N403
*1362 N404
*1363 N405
*1364 N406
*1365 N407
*1366 N408
*1367 N409
*1368 N410
*1369 N411
*1370 N412
*1371 N413
*1372 N414
*1373 N415
*1374 N416
*1375 N417
*1376 N418
*1377 N419
*1378 N420
*1379 N421
*1380 N422
*1381 N423
*1382 N424
*1383 N425
*1384 N426
*1385 N427
*1386 N428
*1387 N429
*1388 N430
*1389 N431
*1390 N432
*1391 N433
*1392 N434
*1393 N435
*1394 N436
*1395 N437
*1396 N438
*1397 N439
*1398 N440
*1399 N441
*1400 N442
*1401 N443
*1402 N444
*1403 N445
*1404 N446
*1405 N447
*1406 N448
*1407 N449
*1408 N450
*1409 N451
*1410 N452
*1411 N453
*1412 N454
*1413 N455
*1414 N456
*1415 N457
*1416 N458
*1417 N459
*1418 N460
*1419 N461
*1420 N462
*1421 N463
*1422 N464
*1423 N465
*1424 N466
*1425 N467
*1426 N468
*1427 N469
*1428 N470
*1429 N471
*1430 N472
*1431 N473
*1432 N474
*1433 N475
*1434 N476
*1435 N477
*1436 N478
*1437 N479
*1438 N480
*1439 N481
*1440 N482
*1441 N483
*1442 N484
*1443 N485
*1444 N486
*1445 N487
*1446 N488
*1447 N489
*1448 N490
*1449 N491
*1450 N492
*1451 N493
*1452 N494
*1453 N495
*1454 N496
*1455 N497
*1456 N498
*1457 N499
*1458 N500
*1459 N501
*1460 N502
*1461 N503
*1462 N504
*1463 N505
*1464 N506
*1465 N507
*1466 N508
*1467 N509
*1468 N510
*1469 N511
*1470 N512
*1471 N513
*1472 N514
*1473 N515
*1474 N516
*1475 N517
*1476 N518
*1477 N519
*1478 N520
*1479 N521
*1480 N522
*1481 N523
*1482 N524
*1483 N525
*1484 N526
*1485 N527
*1486 N528
*1487 N529
*1488 N530
*1489 N531
*1490 N532
*1491 N533
*1492 N534
*1493 N537
*1494 N538
*1495 N539
*1496 N540
*1497 N541
*1498 N542
*1499 N543
*1500 N544
*1501 N545
*1502 N546
*1503 N547
*1504 N548
*1505 N549
*1506 N550
*1507 N551
*1508 N552
*1509 N553
*1510 N554
*1511 N555
*1512 N556
*1513 N557
*1514 N558
*1515 N559
*1516 N560
*1517 N561
*1518 N562
*1519 N563
*1520 N564
*1521 N565
*1522 N566
*1523 N567
*1524 N568
*1525 N569
*1526 N570
*1527 N571
*1528 N572
*1529 N573
*1530 N574
*1531 N575
*1532 N576
*1533 N577
*1534 N578
*1535 N579
*1536 N580
*1537 N581
*1538 N582
*1539 N583
*1540 N584
*1541 N585
*1542 N586
*1543 N587
*1544 N588
*1545 N589
*1546 N590
*1547 N591
*1548 N592
*1549 N593
*1550 N594
*1551 N595
*1552 N596
*1553 N597
*1554 N598
*1555 N599
*1556 N600
*1557 N601
*1558 N602
*1559 N603
*1560 N604
*1561 N605
*1562 N606
*1563 N607
*1564 N608
*1565 N609
*1566 N610
*1567 N611
*1568 N612
*1569 N613
*1570 N614
*1571 N615
*1572 N616
*1573 N617
*1574 N618
*1575 N619
*1576 N620
*1577 N621
*1578 N622
*1579 N623
*1580 N624
*1581 N625
*1582 N626
*1583 N627
*1584 N628
*1585 N629
*1586 N630
*1587 N631
*1588 N632
*1589 N633
*1590 N634
*1591 N635
*1592 N636
*1593 N637
*1594 N638
*1595 N639
*1596 N640
*1597 N641
*1598 N642
*1599 N643
*1600 N644
*1601 N645
*1602 N646
*1603 N647
*1604 N648
*1605 N649
*1606 N650
*1607 N651
*1608 N652
*1609 N653
*1610 N654
*1611 N655
*1612 N656
*1613 N657
*1614 N658
*1615 N659
*1616 N660
*1617 N661
*1618 N662
*1619 N663
*1620 N664
*1621 n1863
*1622 n1864
*1623 n1865
*1624 n1866
*1625 n1867
*1626 n1868
*1627 n1869
*1628 n1870
*1629 n1871
*1630 n1872
*1631 n1873
*1632 n1874
*1633 n1875
*1634 n1876
*1635 n1877
*1636 n1878
*1637 n1879
*1638 n1880
*1639 n1881
*1640 n1882
*1641 n1883
*1642 n1884
*1643 n1885
*1644 n1886
*1645 n1887
*1646 n1888
*1647 n1889
*1648 n1890
*1649 n1891
*1650 n1892
*1651 n1893
*1652 n1894
*1653 n1895
*1654 n1896
*1655 n1897
*1656 n1898
*1657 n1899
*1658 n1900
*1659 n1901
*1660 n1902
*1661 n1903
*1662 n1904
*1663 n1905
*1664 n1906
*1665 n1907
*1666 n1908
*1667 n1909
*1668 n1910
*1669 n1911
*1670 n1912
*1671 n1913
*1672 n1914
*1673 n1915
*1674 n1916
*1675 n1917
*1676 n1918
*1677 n1919
*1678 n1920
*1679 n1921
*1680 n1922
*1681 n1923
*1682 n1924
*1683 n1925
*1684 n1926
*1685 n1927
*1686 n1928
*1687 n1929
*1688 n1930
*1689 n1931
*1690 n1932
*1691 n1933
*1692 n1934
*1693 n1935
*1694 n1936
*1695 n1937
*1696 n1938
*1697 n1939
*1698 n1940
*1699 n1941
*1700 n1942
*1701 n1943
*1702 n1944
*1703 n1945
*1704 n1946
*1705 n1947
*1706 n1948
*1707 n1949
*1708 n1950
*1709 n1951
*1710 n1952
*1711 n1953
*1712 n1954
*1713 n1955
*1714 n1956
*1715 n1957
*1716 n1958
*1717 n1959
*1718 n1960
*1719 n1961
*1720 n1962
*1721 n1963
*1722 n1964
*1723 n1965
*1724 n1966
*1725 n1967
*1726 n1968
*1727 n1969
*1728 n1970
*1729 n1971
*1730 n1972
*1731 n1973
*1732 n1974
*1733 n1975
*1734 n1976
*1735 n1977
*1736 n1978
*1737 n1979
*1738 n1980
*1739 n1981
*1740 n1982
*1741 n1983
*1742 n1984
*1743 n1985
*1744 n1986
*1745 n1987
*1746 n1988
*1747 n1989
*1748 n1990
*1749 n1992
*1750 n1993
*1751 n1994
*1752 n1995
*1753 n1996
*1754 n1997
*1755 n1998
*1756 n1999
*1757 n2000
*1758 n2001
*1759 n2002
*1760 n2003
*1761 n2004
*1762 n2005
*1763 n2006
*1764 n2007
*1765 n2008
*1766 n2009
*1767 n2010
*1768 n2011
*1769 n2012
*1770 n2013
*1771 n2014
*1772 n2015
*1773 n2016
*1774 n2017
*1775 n2018
*1776 n2019
*1777 n2020
*1778 n2021
*1779 n2022
*1780 n2023
*1781 n2024
*1782 n2025
*1783 n2026
*1784 n2027
*1785 n2028
*1786 n2029
*1787 n2030
*1788 n2031
*1789 n2032
*1790 n2033
*1791 n2034
*1792 n2035
*1793 n2036
*1794 n2037
*1795 n2038
*1796 n2039
*1797 n2040
*1798 n2041
*1799 n2042
*1800 n2043
*1801 n2044
*1802 n2045
*1803 n2046
*1804 n2047
*1805 n2048
*1806 n2049
*1807 n2050
*1808 n2051
*1809 n2052
*1810 n2053
*1811 n2054
*1812 n2055
*1813 n2056
*1814 n2057
*1815 n2058
*1816 n2059
*1817 n2060
*1818 n2061
*1819 n2062
*1820 n2063
*1821 n2064
*1822 n2065
*1823 n2066
*1824 n2067
*1825 n2068
*1826 n2069
*1827 n2070
*1828 n2071
*1829 n2072
*1830 n2073
*1831 n2074
*1832 n2075
*1833 n2076
*1834 n2077
*1835 n2078
*1836 n2079
*1837 n2080
*1838 n2081
*1839 n2082
*1840 n2083
*1841 n2084
*1842 n2085
*1843 n2086
*1844 n2087
*1845 n2088
*1846 n2089
*1847 n2090
*1848 n2091
*1849 n2092
*1850 n2093
*1851 n2094
*1852 n2095
*1853 n2096
*1854 n2097
*1855 n2098
*1856 n2099
*1857 n2100
*1858 n2101
*1859 n2102
*1860 n2103
*1861 n2104
*1862 n2105
*1863 n2106
*1864 n2107
*1865 n2108
*1866 n2109
*1867 n2110
*1868 n2111
*1869 n2112
*1870 n2113
*1871 n2114
*1872 n2115
*1873 n2116
*1874 n2117
*1875 n2118
*1876 n2122
*1877 n2131
*1878 n2135
*1879 n2136
*1880 n2140
*1881 n2141
*1882 n2148
*1883 n2161
*1884 n2166
*1885 n2167
*1886 n2179
*1887 n2181
*1888 n2183
*1889 n2192
*1890 n2198
*1891 n2209
*1892 n2213
*1893 n2214
*1894 n2217
*1895 n2218
*1896 n2225
*1897 n2232
*1898 n2240
*1899 n2244
*1900 n2248
*1901 n2259
*1902 n2260
*1903 n2263
*1904 n2266
*1905 n2271
*1906 n2276
*1907 n2327
*1908 n2331
*1909 n2336
*1910 n2337
*1911 n2405
*1912 n2413
*1913 n2420
*1914 n2427
*1915 n2436
*1916 n2444
*1917 n2448
*1918 n2449
*1919 n2452
*1920 n2474
*1921 n2544
*1922 n2545
*1923 n2546
*1924 n2547
*1925 n2548
*1926 n2549
*1927 n2550
*1928 n2551
*1929 n2552
*1930 n2553
*1931 n2555
*1932 n2556
*1933 n2557
*1934 n2558
*1935 n2559
*1936 n2560
*1937 n2561
*1938 n2562
*1939 n2563
*1940 n2564
*1941 n2565
*1942 n2566
*1943 n2567
*1944 n2568
*1945 n2569
*1946 n2570
*1947 n2571
*1948 n2572
*1949 n2573
*1950 n2574
*1951 n2575
*1952 n2576
*1953 n2577
*1954 n2578
*1955 n2579
*1956 n2580
*1957 n2581
*1958 n2582
*1959 n2583
*1960 n2584
*1961 n2585
*1962 n2586
*1963 n2587
*1964 n2588
*1965 n2589
*1966 n2590
*1967 n2591
*1968 n2592
*1969 n2593
*1970 n2594
*1971 n2595
*1972 n2596
*1973 n2597
*1974 n2598
*1975 n2599
*1976 n2600
*1977 n2601
*1978 n2602
*1979 n2603
*1980 n2604
*1981 n2605
*1982 n2606
*1983 n2607
*1984 n2608
*1985 n2609
*1986 n2610
*1987 n2611
*1988 n2612
*1989 n2613
*1990 n2614
*1991 n2615
*1992 n2616
*1993 n2617
*1994 n2618
*1995 n2620
*1996 n2621
*1997 n2622
*1998 n2623
*1999 n2624
*2000 n2625
*2001 n2626
*2002 n2627
*2003 n2628
*2004 n2629
*2005 n2630
*2006 n2631
*2007 n2632
*2008 n2633
*2009 n2634
*2010 n2635
*2011 n2636
*2012 n2637
*2013 n2638
*2014 n2639
*2015 n2640
*2016 n2641
*2017 n2642
*2018 n2643
*2019 n2644
*2020 n2645
*2021 n2646
*2022 n2647
*2023 n2648
*2024 n2649
*2025 n2650
*2026 n2651
*2027 n2652
*2028 n2653
*2029 n2654
*2030 n2655
*2031 n2656
*2032 n2657
*2033 n2658
*2034 n2659
*2035 n2660
*2036 n2661
*2037 n2662
*2038 n2663
*2039 n2664
*2040 n2665
*2041 n2666
*2042 n2667
*2043 n2668
*2044 n2669
*2045 n2670
*2046 n2671
*2047 n2672
*2048 n2673
*2049 n2674
*2050 n2675
*2051 n2676
*2052 n2677
*2053 n2678
*2054 n2679
*2055 n2680
*2056 n2681
*2057 n2682
*2058 n2684
*2059 n2685
*2060 n2686
*2061 n2687
*2062 n2688
*2063 n2689
*2064 n2690
*2065 n2691
*2066 n2692
*2067 n2693
*2068 n2694
*2069 n2695
*2070 n2696
*2071 n2697
*2072 n2698
*2073 n2699
*2074 n2700
*2075 n2701
*2076 n2702
*2077 n2703
*2078 n2704
*2079 n2705
*2080 n2706
*2081 n2707
*2082 n2708
*2083 n2709
*2084 n2710
*2085 n2711
*2086 n2712
*2087 n2713
*2088 n2714
*2089 n2715
*2090 n2716
*2091 n2717
*2092 n2718
*2093 n2719
*2094 n2720
*2095 n2721
*2096 n2722
*2097 n2723
*2098 n2724
*2099 n2725
*2100 n2726
*2101 n2727
*2102 n2728
*2103 n2729
*2104 n2730
*2105 n2731
*2106 n2732
*2107 n2733
*2108 n2734
*2109 n2735
*2110 n2736
*2111 n2737
*2112 n2738
*2113 n2739
*2114 n2740
*2115 n2741
*2116 n2742
*2117 n2743
*2118 n2744
*2119 n2745
*2120 n2746
*2121 n2747
*2122 n2748
*2123 n2749
*2124 n2750
*2125 n2751
*2126 n2752
*2127 n2753
*2128 n2754
*2129 n2755
*2130 n2756
*2131 n2757
*2132 n2758
*2133 n2759
*2134 n2760
*2135 n2761
*2136 n2762
*2137 n2763
*2138 n2764
*2139 n2765
*2140 n2766
*2141 n2767
*2142 n2768
*2143 n2769
*2144 n2770
*2145 n2771
*2146 n2772
*2147 n2773
*2148 n2774
*2149 n2775
*2150 n2776
*2151 n2777
*2152 n2778
*2153 n2779
*2154 n2780
*2155 n2781
*2156 n2782
*2157 n2783
*2158 n2784
*2159 n2785
*2160 n2786
*2161 n2787
*2162 n2788
*2163 n2789
*2164 n2790
*2165 n2791
*2166 n2792
*2167 n2793
*2168 n2794
*2169 n2795
*2170 n2796
*2171 n2797
*2172 n2798
*2173 n2799
*2174 n2800
*2175 n2801
*2176 n2802
*2177 n2803
*2178 n2804
*2179 n2805
*2180 n2806
*2181 n2807
*2182 n2808
*2183 n2809
*2184 n2810
*2185 n2811
*2186 n2812
*2187 n2813
*2188 n2814
*2189 n2815
*2190 n2816
*2191 n2817
*2192 n2818
*2193 n2819
*2194 n2820
*2195 n2821
*2196 n2822
*2197 n2823
*2198 n2824
*2199 n2825
*2200 n2826
*2201 n2827
*2202 n2828
*2203 n2829
*2204 n2830
*2205 n2831
*2206 n2832
*2207 n2844
*2208 n2847
*2209 n2848
*2210 n2849
*2211 n2850
*2212 n2851
*2213 n2852
*2214 n2853
*2215 n2854
*2216 n2855
*2217 n2856
*2218 n2857
*2219 n2858
*2220 n2859
*2221 n2860
*2222 n2861
*2223 n2862
*2224 n2863
*2225 n2864
*2226 n2865
*2227 n2866
*2228 n2867
*2229 n2868
*2230 n2869
*2231 n2870
*2232 n2873
*2233 n2874
*2234 n2875
*2235 n2876
*2236 n2877
*2237 n2878
*2238 n2879
*2239 n2880
*2240 n2881
*2241 n2882
*2242 n2883
*2243 n2884
*2244 n2885
*2245 n2886
*2246 n2887
*2247 n2888
*2248 n2889
*2249 n2890
*2250 n2891
*2251 n2892
*2252 n2893
*2253 n2894
*2254 n2895
*2255 n2896
*2256 n2897
*2257 n2908
*2258 n2913
*2259 n2914
*2260 n2915
*2261 n2916
*2262 n2917
*2263 n2918
*2264 n2919
*2265 n2920
*2266 n2921
*2267 n2922
*2268 n2923
*2269 n2924
*2270 n2925
*2271 n2926
*2272 n2927
*2273 n2928
*2274 n2929
*2275 n2930
*2276 n2931
*2277 n2932
*2278 n2933
*2279 n2934
*2280 n2939
*2281 n2940
*2282 n2941
*2283 n2942
*2284 n2943
*2285 n2944
*2286 n2945
*2287 n2946
*2288 n2947
*2289 n2948
*2290 n2949
*2291 n2950
*2292 n2951
*2293 n2952
*2294 n2953
*2295 n2954
*2296 n2955
*2297 n2956
*2298 n2957
*2299 n2958
*2300 n2959
*2301 n2960
*2302 n2970
*2303 n2972
*2304 n2979
*2305 n2985
*2306 n2986
*2307 n2987
*2308 n2993
*2309 n2994
*2310 n2995
*2311 n2997
*2312 n2998
*2313 n3000